Circuit: * H:\Documents\ELA\simu P1 Q7.asc

Direct Newton iteration for .op point succeeded.

Date: Tue Mar 22 11:47:13 2022
Total elapsed time: 0.025 seconds.

tnom = 27
temp = 27
method = trap
totiter = 11
traniter = 0
tranpoints = 0
accept = 0
rejected = 0
matrix size = 37
fillins = 29
solver = Normal
Matrix Compiler1:     251 opcodes
Matrix Compiler2: 3.74 KB object code size
